/*--------------------------------*- C++ -*----------------------------------*\
| =========                 |                                                 |
| \\      /  F ield         | OpenFOAM: The Open Source CFD Toolbox           |
|  \\    /   O peration     | Version:  1.6                                   |
|   \\  /    A nd           | Web:      www.OpenFOAM.org                      |
|    \\/     M anipulation  |                                                 |
\*---------------------------------------------------------------------------*/
FoamFile
{
    version     2.0;
    format      ascii;
    class       dictionary;
    location    "system";
    object      fvSolution;
}
// * * * * * * * * * * * * * * * * * * * * * * * * * * * * * * * * * * * * * //

solvers
{
    p
    {
        solver          PCG;
	preconditioner  DIC;
        tolerance       1e-09;
        relTol          0.0001;
    }
    
    "(U|kt|kl|omega)"
    {
        solver          PBiCG;
        preconditioner  DILU;
        tolerance       1e-09;
        relTol          0.001;
    }
}

SIMPLE
{
    nNonOrthogonalCorrectors 1;
}

relaxationFactors
{
    p               0.3;
    U               0.7;
    kl              0.8;
    kt              0.8;
    omega	    0.8;
}


// ************************************************************************* //
